C30H30As5N5O5
APtclcactv07021811133D 0   0.00000     0.00000
 
 75 80  0  0  0  0  0  0  0  0999 V2000
    1.5289    0.3200    2.3653 As  0  0  0  0  0  0  0  0  0  0  0  0
    2.7138   -1.1458    1.7270 C   0  0  0  0  0  0  0  0  0  0  0  0
    4.0868   -0.9867    1.7602 C   0  0  0  0  0  0  0  0  0  0  0  0
    4.9138   -2.0076    1.3161 C   0  0  0  0  0  0  0  0  0  0  0  0
    6.3040   -1.8491    1.3491 N   0  0  0  0  0  0  0  0  0  0  0  0
    4.3568   -3.1919    0.8374 C   0  0  0  0  0  0  0  0  0  0  0  0
    5.1628   -4.1968    0.4010 O   0  0  0  0  0  0  0  0  0  0  0  0
    2.9808   -3.3433    0.8075 C   0  0  0  0  0  0  0  0  0  0  0  0
    2.1623   -2.3228    1.2569 C   0  0  0  0  0  0  0  0  0  0  0  0
    1.6751    2.2146    0.8265 As  0  0  0  0  0  0  0  0  0  0  0  0
    2.9393    1.7766   -0.6466 C   0  0  0  0  0  0  0  0  0  0  0  0
    2.4723    1.1729   -1.7995 C   0  0  0  0  0  0  0  0  0  0  0  0
    3.3522    0.8676   -2.8271 C   0  0  0  0  0  0  0  0  0  0  0  0
    2.8819    0.2569   -3.9953 N   0  0  0  0  0  0  0  0  0  0  0  0
    4.7058    1.1708   -2.6935 C   0  0  0  0  0  0  0  0  0  0  0  0
    5.5732    0.8741   -3.6982 O   0  0  0  0  0  0  0  0  0  0  0  0
    5.1654    1.7754   -1.5357 C   0  0  0  0  0  0  0  0  0  0  0  0
    4.2811    2.0818   -0.5171 C   0  0  0  0  0  0  0  0  0  0  0  0
   -0.5755    2.5355   -0.0957 As  0  0  0  0  0  0  0  0  0  0  0  0
   -0.7566    1.4930   -1.7810 C   0  0  0  0  0  0  0  0  0  0  0  0
   -1.3631    0.2506   -1.7617 C   0  0  0  0  0  0  0  0  0  0  0  0
   -1.4904   -0.4768   -2.9356 C   0  0  0  0  0  0  0  0  0  0  0  0
   -2.1044   -1.7344   -2.9187 N   0  0  0  0  0  0  0  0  0  0  0  0
   -1.0057    0.0480   -4.1321 C   0  0  0  0  0  0  0  0  0  0  0  0
   -1.1281   -0.6606   -5.2865 O   0  0  0  0  0  0  0  0  0  0  0  0
   -0.3995    1.2929   -4.1429 C   0  0  0  0  0  0  0  0  0  0  0  0
   -0.2808    2.0150   -2.9690 C   0  0  0  0  0  0  0  0  0  0  0  0
   -2.0538    1.5750    1.6275 As  0  0  0  0  0  0  0  0  0  0  0  0
   -3.7775    1.0317    0.7947 C   0  0  0  0  0  0  0  0  0  0  0  0
   -3.9251   -0.2452    0.2853 C   0  0  0  0  0  0  0  0  0  0  0  0
   -5.1260   -0.6253   -0.2950 C   0  0  0  0  0  0  0  0  0  0  0  0
   -5.2780   -1.9174   -0.8110 N   0  0  0  0  0  0  0  0  0  0  0  0
   -6.1811    0.2825   -0.3624 C   0  0  0  0  0  0  0  0  0  0  0  0
   -7.3613   -0.0848   -0.9299 O   0  0  0  0  0  0  0  0  0  0  0  0
   -6.0252    1.5593    0.1501 C   0  0  0  0  0  0  0  0  0  0  0  0
   -4.8262    1.9298    0.7321 C   0  0  0  0  0  0  0  0  0  0  0  0
   -0.8047   -0.4352    2.3171 As  0  0  0  0  0  0  0  0  0  0  0  0
   -1.0147   -1.8528    0.9364 C   0  0  0  0  0  0  0  0  0  0  0  0
   -1.9784   -2.8317    1.0940 C   0  0  0  0  0  0  0  0  0  0  0  0
   -2.1261   -3.8200    0.1323 C   0  0  0  0  0  0  0  0  0  0  0  0
   -3.1012   -4.8117    0.2894 N   0  0  0  0  0  0  0  0  0  0  0  0
   -1.3015   -3.8226   -0.9910 C   0  0  0  0  0  0  0  0  0  0  0  0
   -1.4421   -4.7890   -1.9377 O   0  0  0  0  0  0  0  0  0  0  0  0
   -0.3389   -2.8387   -1.1414 C   0  0  0  0  0  0  0  0  0  0  0  0
   -0.2008   -1.8531   -0.1806 C   0  0  0  0  0  0  0  0  0  0  0  0
    4.5152   -0.0674    2.1315 H   0  0  0  0  0  0  0  0  0  0  0  0
    6.6903   -1.0244    1.6829 H   0  0  0  0  0  0  0  0  0  0  0  0
    6.8812   -2.5640    1.0382 H   0  0  0  0  0  0  0  0  0  0  0  0
    5.4152   -4.8261    1.0904 H   0  0  0  0  0  0  0  0  0  0  0  0
    2.5465   -4.2601    0.4369 H   0  0  0  0  0  0  0  0  0  0  0  0
    1.0893   -2.4429    1.2331 H   0  0  0  0  0  0  0  0  0  0  0  0
    1.4227    0.9389   -1.8996 H   0  0  0  0  0  0  0  0  0  0  0  0
    1.9394    0.0466   -4.0871 H   0  0  0  0  0  0  0  0  0  0  0  0
    3.4984    0.0439   -4.7132 H   0  0  0  0  0  0  0  0  0  0  0  0
    5.6813    1.5831   -4.3467 H   0  0  0  0  0  0  0  0  0  0  0  0
    6.2139    2.0115   -1.4296 H   0  0  0  0  0  0  0  0  0  0  0  0
    4.6414    2.5537    0.3851 H   0  0  0  0  0  0  0  0  0  0  0  0
   -1.7374   -0.1534   -0.8326 H   0  0  0  0  0  0  0  0  0  0  0  0
   -2.5438   -2.0489   -2.1131 H   0  0  0  0  0  0  0  0  0  0  0  0
   -2.0906   -2.2916   -3.7126 H   0  0  0  0  0  0  0  0  0  0  0  0
   -1.9465   -0.4853   -5.7707 H   0  0  0  0  0  0  0  0  0  0  0  0
   -0.0230    1.7020   -5.0688 H   0  0  0  0  0  0  0  0  0  0  0  0
    0.1920    2.9860   -2.9795 H   0  0  0  0  0  0  0  0  0  0  0  0
   -3.1052   -0.9462    0.3388 H   0  0  0  0  0  0  0  0  0  0  0  0
   -4.5429   -2.5484   -0.7630 H   0  0  0  0  0  0  0  0  0  0  0  0
   -6.1185   -2.1820   -1.2165 H   0  0  0  0  0  0  0  0  0  0  0  0
   -7.9934   -0.4707   -0.3082 H   0  0  0  0  0  0  0  0  0  0  0  0
   -6.8413    2.2649    0.0991 H   0  0  0  0  0  0  0  0  0  0  0  0
   -4.7066    2.9260    1.1316 H   0  0  0  0  0  0  0  0  0  0  0  0
   -2.6156   -2.8269    1.9660 H   0  0  0  0  0  0  0  0  0  0  0  0
   -3.6747   -4.8084    1.0716 H   0  0  0  0  0  0  0  0  0  0  0  0
   -3.2034   -5.5023   -0.3841 H   0  0  0  0  0  0  0  0  0  0  0  0
   -2.0662   -4.5629   -2.6409 H   0  0  0  0  0  0  0  0  0  0  0  0
    0.3015   -2.8384   -2.0110 H   0  0  0  0  0  0  0  0  0  0  0  0
    0.5504   -1.0864   -0.2998 H   0  0  0  0  0  0  0  0  0  0  0  0
  1  2  1  0  0  0  0
  2  3  1  0  0  0  0
  3  4  2  0  0  0  0
  4  5  1  0  0  0  0
  4  6  1  0  0  0  0
  6  7  1  0  0  0  0
  6  8  2  0  0  0  0
  8  9  1  0  0  0  0
  2  9  2  0  0  0  0
  1 10  1  0  0  0  0
 10 11  1  0  0  0  0
 11 12  1  0  0  0  0
 12 13  2  0  0  0  0
 13 14  1  0  0  0  0
 13 15  1  0  0  0  0
 15 16  1  0  0  0  0
 15 17  2  0  0  0  0
 17 18  1  0  0  0  0
 11 18  2  0  0  0  0
 10 19  1  0  0  0  0
 19 20  1  0  0  0  0
 20 21  1  0  0  0  0
 21 22  2  0  0  0  0
 22 23  1  0  0  0  0
 22 24  1  0  0  0  0
 24 25  1  0  0  0  0
 24 26  2  0  0  0  0
 26 27  1  0  0  0  0
 20 27  2  0  0  0  0
 19 28  1  0  0  0  0
 28 29  1  0  0  0  0
 29 30  1  0  0  0  0
 30 31  2  0  0  0  0
 31 32  1  0  0  0  0
 31 33  1  0  0  0  0
 33 34  1  0  0  0  0
 33 35  2  0  0  0  0
 35 36  1  0  0  0  0
 29 36  2  0  0  0  0
 28 37  1  0  0  0  0
  1 37  1  0  0  0  0
 37 38  1  0  0  0  0
 38 39  1  0  0  0  0
 39 40  2  0  0  0  0
 40 41  1  0  0  0  0
 40 42  1  0  0  0  0
 42 43  1  0  0  0  0
 42 44  2  0  0  0  0
 44 45  1  0  0  0  0
 38 45  2  0  0  0  0
  3 46  1  0  0  0  0
  5 47  1  0  0  0  0
  5 48  1  0  0  0  0
  7 49  1  0  0  0  0
  8 50  1  0  0  0  0
  9 51  1  0  0  0  0
 12 52  1  0  0  0  0
 14 53  1  0  0  0  0
 14 54  1  0  0  0  0
 16 55  1  0  0  0  0
 17 56  1  0  0  0  0
 18 57  1  0  0  0  0
 21 58  1  0  0  0  0
 23 59  1  0  0  0  0
 23 60  1  0  0  0  0
 25 61  1  0  0  0  0
 26 62  1  0  0  0  0
 27 63  1  0  0  0  0
 30 64  1  0  0  0  0
 32 65  1  0  0  0  0
 32 66  1  0  0  0  0
 34 67  1  0  0  0  0
 35 68  1  0  0  0  0
 36 69  1  0  0  0  0
 39 70  1  0  0  0  0
 41 71  1  0  0  0  0
 41 72  1  0  0  0  0
 43 73  1  0  0  0  0
 44 74  1  0  0  0  0
 45 75  1  0  0  0  0
M  END
$$$$
